Version 4
SHEET 1 968 680
WIRE 336 -96 160 -96
WIRE 160 -80 160 -96
WIRE 336 -80 336 -96
WIRE 336 32 336 0
WIRE 624 48 576 48
WIRE 816 48 688 48
WIRE 160 128 160 80
WIRE 288 128 160 128
WIRE 384 128 368 128
WIRE 464 128 448 128
WIRE 576 128 576 48
WIRE 576 128 544 128
WIRE 624 128 576 128
WIRE 720 128 704 128
WIRE 816 128 816 48
WIRE 816 128 800 128
WIRE 912 128 816 128
WIRE 160 144 160 128
WIRE 160 144 80 144
WIRE 912 144 912 128
WIRE 288 160 288 128
WIRE 576 160 576 128
WIRE 816 160 816 128
WIRE 192 208 192 160
WIRE 192 208 176 208
WIRE 80 224 80 144
WIRE 112 224 80 224
WIRE -512 240 -512 176
WIRE 240 240 176 240
WIRE 240 272 240 240
WIRE 288 272 288 224
WIRE 576 272 576 224
WIRE 816 272 816 224
WIRE 912 272 912 224
WIRE -512 352 -512 320
FLAG 240 272 0
FLAG 288 272 0
FLAG 576 272 0
FLAG 816 272 0
FLAG 912 272 0
FLAG 336 32 0
FLAG -512 352 0
FLAG 192 160 Gate
FLAG -512 176 Gate
FLAG 912 128 Ant
FLAG -240 224 0
SYMBOL voltage -512 224 R0
WINDOW 0 -3 -2 Left 2
WINDOW 123 24 124 Left 2
WINDOW 39 24 152 Left 2
SYMATTR InstName V1
SYMATTR Value2 AC 1
SYMATTR SpiceLine Rser=100
SYMATTR Value PULSE(0 4.8 0 1n 1n 35.715n 71.428n)
SYMBOL ind 144 -16 R0
SYMATTR InstName L1
SYMATTR Value 200µ
SYMBOL ind 272 144 R270
WINDOW 0 32 56 VTop 2
WINDOW 3 5 56 VBottom 2
SYMATTR InstName L2
SYMATTR Value .49µ
SYMBOL ind 608 144 R270
WINDOW 0 32 56 VTop 2
WINDOW 3 5 56 VBottom 2
SYMATTR InstName L3
SYMATTR Value .07µ
SYMBOL cap 272 160 R0
WINDOW 0 41 28 Left 2
SYMATTR InstName C1
SYMATTR Value 120p
SYMBOL cap 448 112 R90
WINDOW 0 0 32 VBottom 2
WINDOW 3 32 32 VTop 2
SYMATTR InstName C2
SYMATTR Value 480p
SYMBOL cap 592 224 R180
WINDOW 0 47 34 Left 2
WINDOW 3 24 8 Left 2
SYMATTR InstName C3
SYMATTR Value 480p
SYMBOL cap 832 224 R180
WINDOW 0 -39 33 Left 2
WINDOW 3 -50 6 Left 2
SYMATTR InstName C4
SYMATTR Value 360p
SYMBOL voltage 336 -96 R0
WINDOW 123 0 0 Left 0
WINDOW 39 0 0 Left 0
SYMATTR InstName V2
SYMATTR Value 4.5
SYMBOL res 896 128 R0
SYMATTR InstName R1
SYMATTR Value 50
SYMBOL cap 688 32 R90
WINDOW 0 0 32 VBottom 2
WINDOW 3 32 32 VTop 2
SYMATTR InstName C5
SYMATTR Value 120p
SYMBOL res 144 -96 R0
SYMATTR InstName R2
SYMATTR Value 0.2
SYMBOL res 560 112 R90
WINDOW 0 0 56 VBottom 2
WINDOW 3 32 56 VTop 2
SYMATTR InstName R3
SYMATTR Value .3
SYMBOL res 816 112 R90
WINDOW 0 0 56 VBottom 2
WINDOW 3 32 56 VTop 2
SYMATTR InstName R4
SYMATTR Value 0.3
SYMBOL AutoGenerated\\irlml2060pbf 144 224 R0
SYMATTR InstName U2
SYMBOL voltage -240 128 R0
WINDOW 123 0 0 Left 0
WINDOW 39 24 124 Left 2
SYMATTR SpiceLine Rser=50
SYMATTR InstName V3
SYMATTR Value SINE(2.5 2.5 14.1Meg)
TEXT -8 104 Left 2 !.tran 0 151u 150u
TEXT -344 400 Left 2 ;https://community.infineon.com/t5/MOSFET-Si-SiC/Model-of-irfp260n-does-not-work-on-LTSpice/td-p/448965
