Version 4
SHEET 1 960 680
WIRE 336 -96 160 -96
WIRE 336 -80 336 -96
WIRE -240 -48 -272 -48
WIRE -96 -48 -128 -48
WIRE 0 -48 0 -64
WIRE -240 -16 -272 -16
WIRE -96 -16 -128 -16
WIRE -96 0 -96 -16
WIRE 160 0 160 -96
WIRE 336 32 336 0
WIRE 544 48 528 48
WIRE 0 64 0 32
WIRE -240 80 -272 80
WIRE -96 80 -128 80
WIRE -240 112 -272 112
WIRE -96 112 -128 112
WIRE -96 128 -96 112
WIRE 160 128 160 80
WIRE 288 128 160 128
WIRE 384 128 368 128
WIRE 464 128 464 48
WIRE 464 128 448 128
WIRE 544 128 544 48
WIRE 640 128 544 128
WIRE 160 144 160 128
WIRE 160 144 80 144
WIRE 640 144 640 128
WIRE 288 160 288 128
WIRE 464 160 464 128
WIRE 544 160 544 128
WIRE -240 208 -272 208
WIRE -96 208 -128 208
WIRE 192 208 192 160
WIRE 192 208 176 208
WIRE 80 224 80 144
WIRE 112 224 80 224
WIRE -512 240 -512 176
WIRE -240 240 -272 240
WIRE -96 240 -128 240
WIRE 240 240 176 240
WIRE -96 256 -96 240
WIRE 240 272 240 240
WIRE 288 272 288 224
WIRE 464 272 464 224
WIRE 544 272 544 224
WIRE 640 272 640 224
WIRE -512 352 -512 320
FLAG 240 272 0
FLAG 288 272 0
FLAG 464 272 0
FLAG 544 272 0
FLAG 640 272 0
FLAG 336 32 0
FLAG -512 352 0
FLAG 0 -64 5V
FLAG -96 -48 5V
FLAG -96 80 5V
FLAG -96 208 5V
FLAG -96 256 0
FLAG -96 128 0
FLAG -96 0 0
FLAG -512 176 Osc
FLAG -272 240 Osc
FLAG -272 112 Osc
FLAG -272 -16 Osc
FLAG 0 256 Gate
FLAG -272 -48 Gate
FLAG -272 80 Gate
FLAG -272 208 Gate
FLAG 640 128 Ant
FLAG 0 64 0
FLAG 192 160 Osc
SYMBOL voltage -512 224 R0
WINDOW 0 -3 -2 Left 2
WINDOW 123 24 124 Left 2
WINDOW 39 24 124 Left 2
SYMATTR InstName V1
SYMATTR Value SINE(2.5 2.5 14MEG 0 0 35.715n)
SYMBOL ind 144 -16 R0
SYMATTR InstName L1
SYMATTR Value 200µ
SYMBOL ind 272 144 R270
WINDOW 0 32 56 VTop 2
WINDOW 3 5 56 VBottom 2
SYMATTR InstName L2
SYMATTR Value 0.48µH
SYMBOL ind 448 144 R270
WINDOW 0 32 56 VTop 2
WINDOW 3 5 56 VBottom 2
SYMATTR InstName L3
SYMATTR Value 0.19µH
SYMBOL cap 272 160 R0
WINDOW 0 41 28 Left 2
SYMATTR InstName C1
SYMATTR Value 150p
SYMBOL cap 448 112 R90
WINDOW 0 0 32 VBottom 2
WINDOW 3 32 32 VTop 2
SYMATTR InstName C2
SYMATTR Value 550p
SYMBOL cap 480 224 R180
WINDOW 0 47 34 Left 2
WINDOW 3 24 8 Left 2
SYMATTR InstName C3
SYMATTR Value 220p
SYMBOL cap 560 224 R180
WINDOW 0 -39 33 Left 2
WINDOW 3 -50 6 Left 2
SYMATTR InstName C4
SYMATTR Value 430p
SYMBOL voltage 336 -96 R0
WINDOW 123 0 0 Left 0
WINDOW 39 0 0 Left 0
SYMATTR InstName V2
SYMATTR Value 4.5
SYMBOL res 624 128 R0
SYMATTR InstName R1
SYMATTR Value 50
SYMBOL cap 528 32 R90
WINDOW 0 0 32 VBottom 2
WINDOW 3 32 32 VTop 2
SYMATTR InstName C5
SYMATTR Value 150p
SYMBOL AutoGenerated\\irlml2060pbf 144 224 R0
SYMATTR InstName U1
SYMBOL AutoGenerated\\SN74ACT04 -192 96 R0
SYMATTR InstName U2
SYMBOL AutoGenerated\\SN74ACT04 -192 -32 R0
SYMATTR InstName U3
SYMBOL AutoGenerated\\SN74ACT04 -192 224 R0
SYMATTR InstName U4
SYMBOL voltage 0 -64 R0
WINDOW 123 0 0 Left 0
WINDOW 39 0 0 Left 0
SYMATTR InstName V3
SYMATTR Value 4.5
TEXT -8 104 Left 2 !.tran 0 11u 10u
TEXT -344 400 Left 2 ;https://community.infineon.com/t5/MOSFET-Si-SiC/Model-of-irfp260n-does-not-work-on-LTSpice/td-p/448965
