Version 4
SHEET 1 916 680
WIRE 96 -48 -48 -48
WIRE 704 -48 512 -48
WIRE 208 -32 160 -32
WIRE 224 -32 208 -32
WIRE 96 -16 64 -16
WIRE 512 -16 512 -48
WIRE 704 48 704 32
WIRE 800 48 704 48
WIRE 832 48 800 48
WIRE 512 64 512 -16
WIRE 64 80 64 -16
WIRE 64 80 32 80
WIRE 128 80 64 80
WIRE 208 80 208 -32
WIRE 208 80 192 80
WIRE 64 112 64 80
WIRE 224 112 64 112
WIRE 304 112 304 -32
WIRE 368 112 304 112
WIRE 368 128 368 112
WIRE 32 144 32 80
WIRE 512 192 512 144
WIRE 224 240 64 240
WIRE 368 240 368 192
WIRE 368 240 304 240
WIRE 32 272 32 224
WIRE 64 272 64 240
WIRE 64 272 32 272
WIRE 128 272 64 272
WIRE 64 352 64 272
WIRE 80 352 64 352
WIRE 192 368 192 272
WIRE 192 368 144 368
WIRE 224 368 192 368
WIRE 304 368 304 240
WIRE 80 384 -48 384
FLAG 512 -16 VDDA
FLAG 512 192 0
FLAG 128 0 VDDA
FLAG 112 336 VDDA
FLAG 128 -64 0
FLAG 112 400 0
FLAG 704 128 0
FLAG 832 48 VGND
FLAG -48 32 VGND
FLAG -48 464 VGND
FLAG 800 112 0
FLAG 368 112 Vop
FLAG 368 240 Vom
SYMBOL OpAmps\\LT6231 128 -32 M180
SYMATTR InstName U1
SYMBOL OpAmps\\LT6231 112 368 R0
SYMATTR InstName U2
SYMBOL voltage 512 48 R0
WINDOW 123 0 0 Left 0
WINDOW 39 0 0 Left 0
SYMATTR InstName V1
SYMATTR Value 5
SYMBOL res 16 128 R0
SYMATTR InstName R1
SYMATTR Value 100
SYMBOL res 320 -48 R90
WINDOW 0 0 56 VBottom 2
WINDOW 3 32 56 VTop 2
SYMATTR InstName R2
SYMATTR Value 47
SYMBOL res 320 96 R90
WINDOW 0 0 56 VBottom 2
WINDOW 3 32 56 VTop 2
SYMATTR InstName R3
SYMATTR Value 470
SYMBOL res 320 224 R90
WINDOW 0 0 56 VBottom 2
WINDOW 3 32 56 VTop 2
SYMATTR InstName R4
SYMATTR Value 470
SYMBOL res 320 352 R90
WINDOW 0 0 56 VBottom 2
WINDOW 3 32 56 VTop 2
SYMATTR InstName R5
SYMATTR Value 47
SYMBOL cap 192 64 R90
WINDOW 0 0 32 VBottom 2
WINDOW 3 16 -3 VTop 2
SYMATTR InstName C1
SYMATTR Value 4.7n
SYMBOL cap 192 256 R90
WINDOW 0 11 12 VBottom 2
WINDOW 3 32 32 VTop 2
SYMATTR InstName C2
SYMATTR Value 4.7n
SYMBOL cap 384 192 R180
WINDOW 0 24 56 Left 2
WINDOW 3 24 8 Left 2
SYMATTR InstName C3
SYMATTR Value 10n
SYMBOL voltage -48 -64 R0
WINDOW 3 -238 72 Left 2
WINDOW 123 24 44 Left 2
WINDOW 39 0 0 Left 0
SYMATTR InstName V3
SYMATTR Value SINE(0 1m 1000)
SYMATTR Value2 AC 1 0
SYMBOL voltage -48 368 R0
WINDOW 123 24 124 Left 2
WINDOW 39 0 0 Left 0
SYMATTR InstName V4
SYMATTR Value SINE(0 -1m 1000)
SYMATTR Value2 AC 1 180
SYMBOL res 688 -64 R0
SYMATTR InstName R6
SYMATTR Value 10k
SYMBOL res 688 32 R0
SYMATTR InstName R7
SYMATTR Value 10k
SYMBOL cap 784 48 R0
SYMATTR InstName C4
SYMATTR Value .1µ
TEXT -160 216 Left 2 !;tran 2m
TEXT -272 256 Left 2 !.ac dec 100 1 100MEG
TEXT -416 184 Left 2 !;.noise V(Vop) V3 dec 100 1 100MEG
