Version 4
SHEET 1 880 680
SYMBOL AutoGenerated\\irlml2060pbf 192 128 R0
SYMATTR InstName U1
