Version 4
SHEET 1 880 680
SYMBOL OpAmps\\opamp2 208 96 R0
SYMATTR InstName U1
SYMATTR Value opa161x
SYMATTR SpiceModel Z:\home\frohro\Classes\Electronics\2023 SDR\SDR 2023 Docs\OPA161x.LIB
